Circuit: * C:\Users\LENOVO\Desktop\Misc\EEC Lab\MEC\BJT_CB_characteristics.asc

.OP point found by inspection.
.step v1=0
.step v1=1
.step v1=2
.step v1=3
.step v1=4
.step v1=5
.step v1=6
.step v1=7
.step v1=8
.step v1=9
.step v1=10

Date: Tue Mar 16 15:25:06 2021
Total elapsed time: 0.678 seconds.

tnom = 27
temp = 27
method = trap
totiter = 22320
traniter = 0
tranpoints = 0
accept = 0
rejected = 0
matrix size = 13
fillins = 0
solver = Normal
Matrix Compiler1: 584 bytes object code size  0.4/0.3/[0.2]
Matrix Compiler2: 905 bytes object code size  0.3/0.4/[0.2]


