Circuit: * C:\Users\LENOVO\Desktop\Misc\EEC Lab\MEC\BJT_CC_characteristics.asc

.step i1=0.02
.step i1=0.03
.step i1=0.04
.step i1=0.05
.step i1=0.06
.step i1=0.07
.step i1=0.08
.step i1=0.09
.step i1=0.1

Date: Tue Mar 16 15:24:37 2021
Total elapsed time: 0.594 seconds.

tnom = 27
temp = 27
method = trap
totiter = 18144
traniter = 0
tranpoints = 0
accept = 0
rejected = 0
matrix size = 13
fillins = 0
solver = Normal
Matrix Compiler1: 682 bytes object code size  0.4/0.4/[0.2]
Matrix Compiler2: 973 bytes object code size  0.6/0.8/[0.2]


