Circuit: * C:\Users\LENOVO\Desktop\Misc\EEC Lab\MEC\Draft1.asc

.step i1=0.01
.step i1=0.02
.step i1=0.03
.step i1=0.04
.step i1=0.05
.step i1=0.06
.step i1=0.07
.step i1=0.08
.step i1=0.09
.step i1=0.1

Date: Sun Mar 14 10:24:12 2021
Total elapsed time: 0.722 seconds.

tnom = 27
temp = 27
method = trap
totiter = 24094
traniter = 0
tranpoints = 0
accept = 0
rejected = 0
matrix size = 6
fillins = 0
solver = Normal
Matrix Compiler1:      16 opcodes  0.2/[0.2]/0.2
Matrix Compiler2: 428 bytes object code size  0.1/0.2/[0.1]


