Circuit: * C:\Users\LENOVO\Desktop\Misc\EEC Lab\MEC\lab2_clipper_2019A3PS0443H_VISHWAS_GAUTAM.asc

.OP point found by inspection.

Date: Sat Mar 27 10:24:21 2021
Total elapsed time: 0.151 seconds.

tnom = 27
temp = 27
method = modified trap
totiter = 4078
traniter = 4078
tranpoints = 1670
accept = 1463
rejected = 207
matrix size = 9
fillins = 0
solver = Normal
Matrix Compiler1: 260 bytes object code size  0.3/0.1/[0.1]
Matrix Compiler2: 565 bytes object code size  0.2/0.2/[0.1]


